Test_Network/condensed/network_18/Feeder_6/Loads - Copy.txt
New Load.LOAD1 Phases=1 Bus1=122.2 kV=0.23 kW=1 PF=0.95
New Load.LOAD2 Phases=1 Bus1=124.3 kV=0.23 kW=1 PF=0.95
New Load.LOAD3 Phases=1 Bus1=215.2 kV=0.23 kW=1 PF=0.95
New Load.LOAD4 Phases=1 Bus1=237.3 kV=0.23 kW=1 PF=0.95
New Load.LOAD5 Phases=1 Bus1=272.3 kV=0.23 kW=1 PF=0.95
New Load.LOAD6 Phases=1 Bus1=274.3 kV=0.23 kW=1 PF=0.95
New Load.LOAD7 Phases=1 Bus1=382.3 kV=0.23 kW=1 PF=0.95
New Load.LOAD8 Phases=1 Bus1=389.1 kV=0.23 kW=1 PF=0.95
New Load.LOAD9 Phases=1 Bus1=392.1 kV=0.23 kW=1 PF=0.95
New Load.LOAD10 Phases=1 Bus1=399.1 kV=0.23 kW=1 PF=0.95
New Load.LOAD11 Phases=1 Bus1=422.2 kV=0.23 kW=1 PF=0.95
New Load.LOAD12 Phases=1 Bus1=433.3 kV=0.23 kW=1 PF=0.95
New Load.LOAD13 Phases=1 Bus1=442.3 kV=0.23 kW=1 PF=0.95
New Load.LOAD14 Phases=1 Bus1=461.2 kV=0.23 kW=1 PF=0.95
New Load.LOAD15 Phases=1 Bus1=473.1 kV=0.23 kW=1 PF=0.95
New Load.LOAD16 Phases=1 Bus1=477.3 kV=0.23 kW=1 PF=0.95
New Load.LOAD17 Phases=1 Bus1=481.2 kV=0.23 kW=1 PF=0.95
New Load.LOAD18 Phases=1 Bus1=491.1 kV=0.23 kW=1 PF=0.95
New Load.LOAD19 Phases=1 Bus1=503.3 kV=0.23 kW=1 PF=0.95
New Load.LOAD20 Phases=1 Bus1=509.3 kV=0.23 kW=1 PF=0.95
New Load.LOAD21 Phases=1 Bus1=528.2 kV=0.23 kW=1 PF=0.95
New Load.LOAD22 Phases=1 Bus1=531.3 kV=0.23 kW=1 PF=0.95
